Circuit: * C:\Users\Miggy Ideapad\Documents\seniorDesign\ferroelectric_cap.asc

Unknown node in .ic card: "out_in" -- ignoring
Direct Newton iteration for .op point succeeded.

Date: Tue Oct 29 18:21:14 2024
Total elapsed time: 0.034 seconds.

tnom = 27
temp = 27
method = modified trap
totiter = 20695
traniter = 20692
tranpoints = 9449
accept = 5931
rejected = 3518
matrix size = 5
fillins = 0
solver = Normal
Matrix Compiler1:       8 opcodes  0.0/[0.0]/0.1
Matrix Compiler2: 287 bytes object code size  0.0/0.1/[0.0]

